LTspice 26.0.0 for Windows
Circuit: C:\Users\mahmo\OneDrive\Documents\LTspice\Draft3.net
Start Time: Sun Dec 14 00:31:23 2025
solver = Normal
Maximum thread count: 16
tnom = 27
temp = 27
method = trap
Direct Newton iteration succeeded in finding operating point.
Direct Newton iteration succeeded in finding operating point.
Direct Newton iteration succeeded in finding operating point.
Direct Newton iteration succeeded in finding operating point.
Direct Newton iteration succeeded in finding operating point.
Direct Newton iteration succeeded in finding operating point.
Direct Newton iteration succeeded in finding operating point.
Direct Newton iteration succeeded in finding operating point.
Direct Newton iteration succeeded in finding operating point.
Total elapsed time: 0.170 seconds.

Files loaded:
C:\Users\mahmo\OneDrive\Documents\LTspice\Draft3.net
C:\Users\mahmo\AppData\Local\LTspice\lib\sub\UniversalOpAmp2.lib

